# generated using pymatgen
data_MgSiO3
_symmetry_space_group_name_H-M   'P 1'
_cell_length_a   6.53392158
_cell_length_b   6.53392158
_cell_length_c   5.05995815
_cell_angle_alpha   80.58817002
_cell_angle_beta   99.41182998
_cell_angle_gamma   93.51326468
_symmetry_Int_Tables_number   1
_chemical_formula_structural   MgSiO3
_chemical_formula_sum   'Mg4 Si4 O12'
_cell_volume   210.11116917
_cell_formula_units_Z   4
loop_
 _symmetry_equiv_pos_site_id
 _symmetry_equiv_pos_as_xyz
  1  'x, y, z'
loop_
 _atom_site_type_symbol
 _atom_site_label
 _atom_site_symmetry_multiplicity
 _atom_site_fract_x
 _atom_site_fract_y
 _atom_site_fract_z
 _atom_site_occupancy
  Mg  Mg0  1  0.90303200  0.90303200  0.75000000  1
  Mg  Mg1  1  0.09696800  0.09696800  0.25000000  1
  Mg  Mg2  1  0.27043600  0.27043600  0.75000000  1
  Mg  Mg3  1  0.72956400  0.72956400  0.25000000  1
  Si  Si4  1  0.79274400  0.38769400  0.78278700  1
  Si  Si5  1  0.38769400  0.79274400  0.71721300  1
  Si  Si6  1  0.20725600  0.61230600  0.21721300  1
  Si  Si7  1  0.61230600  0.20725600  0.28278700  1
  O  O8  1  0.59172700  0.29489500  0.57373600  1
  O  O9  1  0.29489500  0.59172700  0.92626400  1
  O  O10  1  0.40827300  0.70510500  0.42626400  1
  O  O11  1  0.70510500  0.40827300  0.07373600  1
  O  O12  1  0.38701100  0.14569100  0.13192900  1
  O  O13  1  0.14569100  0.38701100  0.36807100  1
  O  O14  1  0.61298900  0.85430900  0.86807100  1
  O  O15  1  0.85430900  0.61298900  0.63192900  1
  O  O16  1  0.97082700  0.21302000  0.85833500  1
  O  O17  1  0.21302000  0.97082700  0.64166500  1
  O  O18  1  0.02917300  0.78698000  0.14166500  1
  O  O19  1  0.78698000  0.02917300  0.35833500  1
